/*--------------------------------*- C++ -*----------------------------------*\
i| =========                 |                                                 |
| \\      /  F ield         | OpenFOAM: The Open Source CFD Toolbox           |
|  \\    /   O peration     | Version:  v2012                                 |
|   \\  /    A nd           | Website:  www.openfoam.com                      |
|    \\/     M anipulation  |                                                 |
\*---------------------------------------------------------------------------*/
FoamFile
{
    version     2.0;
    format      ascii;
    class       dictionary;
    object      blockMeshDict;
}
// * * * * * * * * * * * * * * * * * * * * * * * * * * * * * * * * * * * * * //

scale   0.1;

vertices
(
    (0 0 0)	//point 0
    (1 0 0)	//point 1
    (1 1 0)	//point 2
    (0 1 0)	//point 3
    (0 0 0.1)	//point 4
    (1 0 0.1)	//point 5
    (1 1 0.1)	//point	6
    (0 1 0.1)	//point 7

    //here are our new vertices

    (11 0 0)     //point 8
    (11 1 0)     //point 9
    (11 0 0.1)   //point 10
    (11 1 0.1)   //point 11




);

blocks
(
    hex (0 1 2 3 4 5 6 7) (20 80 1) simpleGrading (0.2 40 1)  //first block
    hex (1 8 9 2 5 10 11 6) (200 80 1) simpleGrading (6 40 1) //second block

    );

edges
(
);

boundary
(
    zeroGradientPlanes
    {
        type patch;
        faces
        (
            (1 5 4 0) // this is the bottom left sind x=0,1, y=0
	    (8 9 11 10) //this is left side outlet x=2 plane
	    (3 7 6 2) //this is x=0 & x=1 (top y plane)
            (2 6 11 9) //this is x=1 & x= 2 (top y plane)	
        );
    }

    inlet
    {
	 type patch;
	 faces
	 (
	    (0 4 7 3) // tihs ist the left side x=0
	   
	 );
    }	
    plate
    {
	type wall;
	faces
	(
	    
	    (1 8 10 5)  // this is the Wall where y=0 x=1,2
	    
	 );
	}


    frontAndBack
    {
        type empty;
        faces
        (
            (0 3 2 1)  //tihs ist the back, z coodinat =0 (low z plane), x=0 or 1
            (4 5 6 7)// This is the front, z coodinate= 0.1 (lager z plane ,x=0 or 1
	    (1 2 9 8) // z=0 (low z Palne) , x=1,2 
	    (5 10 11 6) //z=0.1 (langer z plane), x1,2

        );
    }
);

mergePatchPairs
(
);

// ************************************************************************* //
